./vina_docking/7U9A_17_ligand_011_vina_out.pdbqt
 OpenBabel05012313463D

 21 20  0  0  1  0  0  0  0  0999 V2000
   44.4980   -0.3000   33.2440 C   0  0  0  0  0  2  0  0  0  0  0  0
   45.3210   -1.5110   32.8240 C   0  0  0  0  0  2  0  0  0  0  0  0
   45.5130   -2.4660   33.9220 C   0  0  0  0  0  2  0  0  0  0  0  0
   46.7910   -3.1850   34.0880 C   0  0  0  0  0  2  0  0  0  0  0  0
   46.9570   -4.5620   33.6190 C   0  0  0  0  0  2  0  0  0  0  0  0
   46.3590   -5.0270   32.3550 C   0  0  0  0  0  2  0  0  0  0  0  0
   46.9960   -4.4610   31.1020 C   0  0  2  0  0  3  0  0  0  0  0  0
   46.5760   -5.2960   29.8820 C   0  0  0  0  0  2  0  0  0  0  0  0
   46.6910   -4.3760   28.6830 C   0  0  0  0  0  2  0  0  0  0  0  0
   45.6480   -3.2830   28.8230 C   0  0  0  0  0  1  0  0  0  0  0  0
   48.3800   -4.5020   31.1310 O   0  0  0  0  0  0  0  0  0  0  0  0
   48.7170   -5.3220   31.5770 H   0  0  0  0  0  0  0  0  0  0  0  0
   43.2600   -0.6520   34.0250 C   0  0  0  0  0  2  0  0  0  0  0  0
   42.8260    0.6220   34.7160 C   0  0  0  0  0  2  0  0  0  0  0  0
   43.7730    1.7500   34.5480 C   0  0  0  0  0  2  0  0  0  0  0  0
   43.6630    2.7990   35.6260 C   0  0  0  0  0  2  0  0  0  0  0  0
   42.4520    3.6520   35.4570 C   0  0  0  0  0  2  0  0  0  0  0  0
   42.0880    3.9140   34.0220 C   0  0  0  0  0  2  0  0  0  0  0  0
   40.5840    4.0150   33.8900 C   0  0  0  0  0  2  0  0  0  0  0  0
   40.0590    4.6400   35.0350 O   0  0  0  0  0  0  0  0  0  0  0  0
   40.3600    5.5590   35.1340 H   0  0  0  0  0  0  0  0  0  0  0  0
  1 13  1  0  0  0  0
  2  1  1  0  0  0  0
  2  3  1  0  0  0  0
  3  4  1  0  0  0  0
  5  4  1  0  0  0  0
  6  5  1  0  0  0  0
  7  8  1  6  0  0  0
  7 11  1  0  0  0  0
  7  6  1  0  0  0  0
  9 10  1  0  0  0  0
  9  8  1  0  0  0  0
 11 12  1  0  0  0  0
 13 14  1  0  0  0  0
 15 14  1  0  0  0  0
 15 16  1  0  0  0  0
 17 16  1  0  0  0  0
 18 17  1  0  0  0  0
 19 18  1  0  0  0  0
 19 20  1  0  0  0  0
 20 21  1  0  0  0  0
M  END
>  <Pose>
1

>  <Score>
-4.869

$$$$
./vina_docking/7U9A_17_ligand_011_vina_out.pdbqt
 OpenBabel05012313463D

 21 20  0  0  1  0  0  0  0  0999 V2000
   53.4810    0.4570   20.6790 C   0  0  0  0  0  2  0  0  0  0  0  0
   54.1260    1.5720   21.4920 C   0  0  0  0  0  2  0  0  0  0  0  0
   54.0360    1.3350   22.9370 C   0  0  0  0  0  2  0  0  0  0  0  0
   52.9330    0.5370   23.5090 C   0  0  0  0  0  3  0  0  0  0  0  0
   52.3330    0.8830   24.7990 C   0  0  0  0  0  3  0  0  0  0  0  0
   51.5230   -0.0840   25.5610 C   0  0  0  0  0  2  0  0  0  0  0  0
   52.2900   -0.8840   26.5940 C   0  0  2  0  0  3  0  0  0  0  0  0
   53.3280    0.0170   27.2820 C   0  0  0  0  0  2  0  0  0  0  0  0
   52.6770    0.5090   28.5600 C   0  0  0  0  0  2  0  0  0  0  0  0
   52.6860    2.0260   28.5420 C   0  0  0  0  0  1  0  0  0  0  0  0
   53.0060   -1.9340   26.0450 O   0  0  0  0  0  0  0  0  0  0  0  0
   53.2980   -1.7390   25.1170 H   0  0  0  0  0  0  0  0  0  0  0  0
   52.2560    0.8930   19.9200 C   0  0  0  0  0  2  0  0  0  0  0  0
   51.3030   -0.2810   19.9530 C   0  0  0  0  0  2  0  0  0  0  0  0
   50.2340   -0.1600   20.9750 C   0  0  0  0  0  2  0  0  0  0  0  0
   50.2290   -1.2840   21.9820 C   0  0  0  0  0  2  0  0  0  0  0  0
   51.3180   -2.2700   21.7270 C   0  0  0  0  0  2  0  0  0  0  0  0
   51.5940   -3.1850   22.8880 C   0  0  0  0  0  2  0  0  0  0  0  0
   50.3650   -3.2760   23.7660 C   0  0  0  0  0  2  0  0  0  0  0  0
   50.7430   -3.7040   25.0500 O   0  0  0  0  0  0  0  0  0  0  0  0
   50.6030   -4.6560   25.1870 H   0  0  0  0  0  0  0  0  0  0  0  0
  1  2  1  0  0  0  0
  2  3  1  0  0  0  0
  3  4  1  0  0  0  0
  4  5  2  0  0  0  0
  5  6  1  0  0  0  0
  7  6  1  6  0  0  0
  7  8  1  0  0  0  0
  8  9  1  0  0  0  0
 10  9  1  0  0  0  0
 11  7  1  0  0  0  0
 12 11  1  0  0  0  0
 13 14  1  0  0  0  0
 13  1  1  0  0  0  0
 14 15  1  0  0  0  0
 15 16  1  0  0  0  0
 17 16  1  0  0  0  0
 17 18  1  0  0  0  0
 18 19  1  0  0  0  0
 19 20  1  0  0  0  0
 20 21  1  0  0  0  0
M  END
>  <Pose>
2

>  <Score>
-4.866

$$$$
./vina_docking/7U9A_17_ligand_011_vina_out.pdbqt
 OpenBabel05012313463D

 21 20  0  0  1  0  0  0  0  0999 V2000
   45.1950   -2.4190   34.5410 C   0  0  0  0  0  2  0  0  0  0  0  0
   44.8360   -1.3250   33.5450 C   0  0  0  0  0  2  0  0  0  0  0  0
   43.5310   -0.7150   33.8280 C   0  0  0  0  0  2  0  0  0  0  0  0
   43.3920    0.7480   33.9740 C   0  0  0  0  0  3  0  0  0  0  0  0
   43.4670    1.3930   35.2860 C   0  0  0  0  0  3  0  0  0  0  0  0
   43.6480    2.8490   35.4240 C   0  0  0  0  0  2  0  0  0  0  0  0
   42.3660    3.6570   35.3860 C   0  0  2  0  0  3  0  0  0  0  0  0
   42.0810    4.1090   33.9450 C   0  0  0  0  0  2  0  0  0  0  0  0
   40.7480    3.4930   33.5670 C   0  0  0  0  0  2  0  0  0  0  0  0
   40.4200    3.9120   32.1460 C   0  0  0  0  0  1  0  0  0  0  0  0
   42.4320    4.8160   36.1400 O   0  0  0  0  0  0  0  0  0  0  0  0
   42.4670    4.6240   37.1130 H   0  0  0  0  0  0  0  0  0  0  0  0
   46.0030   -3.5400   33.9430 C   0  0  0  0  0  2  0  0  0  0  0  0
   46.2950   -3.1280   32.5170 C   0  0  0  0  0  2  0  0  0  0  0  0
   47.1590   -4.0830   31.7800 C   0  0  0  0  0  2  0  0  0  0  0  0
   46.4100   -5.2650   31.2160 C   0  0  0  0  0  2  0  0  0  0  0  0
   46.7670   -6.5360   31.9080 C   0  0  0  0  0  2  0  0  0  0  0  0
   48.0400   -6.4590   32.7060 C   0  0  0  0  0  2  0  0  0  0  0  0
   47.8600   -7.1880   34.0190 C   0  0  0  0  0  2  0  0  0  0  0  0
   47.8790   -6.2580   35.0720 O   0  0  0  0  0  0  0  0  0  0  0  0
   48.0310   -5.3470   34.7680 H   0  0  0  0  0  0  0  0  0  0  0  0
  2  3  1  0  0  0  0
  2  1  1  0  0  0  0
  3  4  1  0  0  0  0
  4  5  2  0  0  0  0
  5  6  1  0  0  0  0
  7  8  1  6  0  0  0
  7  6  1  0  0  0  0
  7 11  1  0  0  0  0
  9  8  1  0  0  0  0
 10  9  1  0  0  0  0
 11 12  1  0  0  0  0
 13  1  1  0  0  0  0
 14 13  1  0  0  0  0
 15 14  1  0  0  0  0
 16 15  1  0  0  0  0
 16 17  1  0  0  0  0
 17 18  1  0  0  0  0
 18 19  1  0  0  0  0
 19 20  1  0  0  0  0
 21 20  1  0  0  0  0
M  END
>  <Pose>
3

>  <Score>
-4.846

$$$$
./vina_docking/7U9A_17_ligand_011_vina_out.pdbqt
 OpenBabel05012313463D

 21 20  0  0  1  0  0  0  0  0999 V2000
   43.8780    1.5070   34.0430 C   0  0  0  0  0  2  0  0  0  0  0  0
   43.3440    0.3500   33.2100 C   0  0  0  0  0  2  0  0  0  0  0  0
   44.3590   -0.6830   32.9690 C   0  0  0  0  0  3  0  0  0  0  0  0
   44.8030   -1.5790   34.0550 C   0  0  0  0  0  3  0  0  0  0  0  0
   45.6910   -2.7130   33.7920 C   0  0  0  0  0  2  0  0  0  0  0  0
   46.6190   -2.7210   32.6470 C   0  0  0  0  0  2  0  0  0  0  0  0
   46.7940   -4.0700   31.9790 C   0  0  2  0  0  3  0  0  0  0  0  0
   46.5930   -5.1900   33.0110 C   0  0  0  0  0  2  0  0  0  0  0  0
   47.9820   -5.6330   33.4290 C   0  0  0  0  0  2  0  0  0  0  0  0
   48.1730   -5.2720   34.8900 C   0  0  0  0  0  1  0  0  0  0  0  0
   48.0640   -4.2570   31.4600 O   0  0  0  0  0  0  0  0  0  0  0  0
   48.6310   -4.8120   32.0570 H   0  0  0  0  0  0  0  0  0  0  0  0
   43.1760    1.6750   35.3640 C   0  0  0  0  0  2  0  0  0  0  0  0
   43.4710    3.0880   35.8170 C   0  0  0  0  0  2  0  0  0  0  0  0
   42.3860    4.0550   35.5150 C   0  0  0  0  0  2  0  0  0  0  0  0
   41.0780    3.4000   35.1460 C   0  0  0  0  0  2  0  0  0  0  0  0
   40.6250    3.7860   33.7790 C   0  0  0  0  0  2  0  0  0  0  0  0
   39.9330    2.6790   33.0320 C   0  0  0  0  0  2  0  0  0  0  0  0
   39.8840    1.4370   33.8960 C   0  0  0  0  0  2  0  0  0  0  0  0
   39.2440    0.4050   33.1890 O   0  0  0  0  0  0  0  0  0  0  0  0
   39.7510   -0.4250   33.1910 H   0  0  0  0  0  0  0  0  0  0  0  0
  1 13  1  0  0  0  0
  2  1  1  0  0  0  0
  3  2  1  0  0  0  0
  3  4  2  0  0  0  0
  5  4  1  0  0  0  0
  6  5  1  0  0  0  0
  7  6  1  1  0  0  0
  7  8  1  0  0  0  0
  8  9  1  0  0  0  0
  9 10  1  0  0  0  0
 11  7  1  0  0  0  0
 11 12  1  0  0  0  0
 13 14  1  0  0  0  0
 15 14  1  0  0  0  0
 16 15  1  0  0  0  0
 17 16  1  0  0  0  0
 18 17  1  0  0  0  0
 18 19  1  0  0  0  0
 20 21  1  0  0  0  0
 20 19  1  0  0  0  0
M  END
>  <Pose>
4

>  <Score>
-4.810

$$$$
./vina_docking/7U9A_17_ligand_011_vina_out.pdbqt
 OpenBabel05012313463D

 21 20  0  0  1  0  0  0  0  0999 V2000
   52.2300    0.4910   22.6970 C   0  0  0  0  0  2  0  0  0  0  0  0
   53.5150    1.1950   22.2820 C   0  0  0  0  0  2  0  0  0  0  0  0
   53.9020    0.8870   20.9010 C   0  0  0  0  0  2  0  0  0  0  0  0
   53.1580    1.4540   19.7590 C   0  0  0  0  0  2  0  0  0  0  0  0
   52.4040    0.6000   18.8410 C   0  0  0  0  0  2  0  0  0  0  0  0
   51.0430    0.1310   19.1590 C   0  0  0  0  0  2  0  0  0  0  0  0
   50.8510   -1.3700   19.0750 C   0  0  2  0  0  3  0  0  0  0  0  0
   49.8590   -1.8270   20.1560 C   0  0  0  0  0  2  0  0  0  0  0  0
   49.1800   -0.5690   20.6640 C   0  0  0  0  0  2  0  0  0  0  0  0
   47.7360   -0.9070   20.9820 C   0  0  0  0  0  1  0  0  0  0  0  0
   52.0160   -2.0800   19.3070 O   0  0  0  0  0  0  0  0  0  0  0  0
   51.9110   -3.0450   19.0980 H   0  0  0  0  0  0  0  0  0  0  0  0
   52.3160   -1.0110   22.6350 C   0  0  0  0  0  2  0  0  0  0  0  0
   52.0320   -1.5040   24.0360 C   0  0  0  0  0  2  0  0  0  0  0  0
   50.8300   -0.8950   24.6560 C   0  0  0  0  0  2  0  0  0  0  0  0
   50.9970   -0.5850   26.1230 C   0  0  0  0  0  2  0  0  0  0  0  0
   52.2320    0.2060   26.3920 C   0  0  0  0  0  2  0  0  0  0  0  0
   52.0230    1.6940   26.3470 C   0  0  0  0  0  2  0  0  0  0  0  0
   52.1870    2.2720   27.7360 C   0  0  0  0  0  2  0  0  0  0  0  0
   52.1050    3.6730   27.6680 O   0  0  0  0  0  0  0  0  0  0  0  0
   52.1340    4.0960   28.5430 H   0  0  0  0  0  0  0  0  0  0  0  0
  2  1  1  0  0  0  0
  3  2  1  0  0  0  0
  4  3  1  0  0  0  0
  5  6  1  0  0  0  0
  5  4  1  0  0  0  0
  7  6  1  1  0  0  0
  7 11  1  0  0  0  0
  7  8  1  0  0  0  0
  8  9  1  0  0  0  0
  9 10  1  0  0  0  0
 12 11  1  0  0  0  0
 13  1  1  0  0  0  0
 13 14  1  0  0  0  0
 14 15  1  0  0  0  0
 15 16  1  0  0  0  0
 16 17  1  0  0  0  0
 18 17  1  0  0  0  0
 18 19  1  0  0  0  0
 20 19  1  0  0  0  0
 20 21  1  0  0  0  0
M  END
>  <Pose>
5

>  <Score>
-4.788

$$$$
