./vina_docking/7JXQ_17_ligand_008_vina_out.pdbqt
 OpenBabel05012317533D

 20 23  0  0  1  0  0  0  0  0999 V2000
   17.6520  -39.9330  -24.4300 C   0  0  2  0  0  3  0  0  0  0  0  0
   17.1480  -41.2420  -25.0340 C   0  0  0  0  0  2  0  0  0  0  0  0
   18.2560  -41.9660  -25.5000 N   0  0  1  0  0  0  0  0  0  0  0  0
   18.3750  -43.3160  -25.2550 C   0  0  0  0  0  2  0  0  0  0  0  0
   18.7300  -44.0750  -26.5120 C   0  0  0  0  0  2  0  0  0  0  0  0
   20.0110  -43.5410  -27.0500 C   0  0  1  0  0  3  0  0  0  0  0  0
   20.2720  -44.0070  -28.4680 C   0  0  2  0  0  3  0  0  0  0  0  0
   21.2820  -45.1040  -28.5570 C   0  0  0  0  0  2  0  0  0  0  0  0
   21.5800  -45.3210  -30.0360 C   0  0  0  0  0  2  0  0  0  0  0  0
   22.0940  -44.0770  -30.7040 C   0  0  0  0  0  2  0  0  0  0  0  0
   21.0960  -42.9280  -30.4910 C   0  0  0  0  0  2  0  0  0  0  0  0
   20.9710  -42.7620  -29.0330 C   0  0  1  0  0  3  0  0  0  0  0  0
   20.1060  -41.7330  -28.5690 N   0  0  0  0  0  0  0  0  0  0  0  0
   20.1010  -42.0610  -27.1290 C   0  0  1  0  0  3  0  0  0  0  0  0
   19.0820  -41.2930  -26.3980 C   0  0  2  0  0  3  0  0  0  0  0  0
   19.7700  -40.1430  -25.6440 C   0  0  0  0  0  2  0  0  0  0  0  0
   19.1670  -39.9740  -24.2670 C   0  0  0  0  0  2  0  0  0  0  0  0
   19.1070  -41.8920  -28.8810 H   0  0  0  0  0  0  0  0  0  0  0  0
   16.9840  -39.6630  -23.1050 C   0  0  0  0  0  2  0  0  0  0  0  0
   17.9500  -39.2480  -22.0380 C   0  0  0  0  0  1  0  0  0  0  0  0
  1 17  1  0  0  0  0
  1 19  1  1  0  0  0
  2  1  1  0  0  0  0
  3  4  1  6  0  0  0
  3  2  1  0  0  0  0
  5  4  1  0  0  0  0
  6  5  1  6  0  0  0
  7  8  1  1  0  0  0
  7  6  1  0  0  0  0
  9  8  1  0  0  0  0
 10 11  1  0  0  0  0
 10  9  1  0  0  0  0
 12 11  1  6  0  0  0
 12 13  1  0  0  0  0
 12  7  1  0  0  0  0
 14 13  1  6  0  0  0
 14  6  1  0  0  0  0
 14 15  1  0  0  0  0
 15 16  1  1  0  0  0
 15  3  1  0  0  0  0
 16 17  1  0  0  0  0
 18 13  1  0  0  0  0
 19 20  1  0  0  0  0
M  END
>  <Pose>
1

>  <Score>
-5.729

$$$$
./vina_docking/7JXQ_17_ligand_008_vina_out.pdbqt
 OpenBabel05012317533D

 20 23  0  0  1  0  0  0  0  0999 V2000
   12.0210  -40.2460  -25.6570 C   0  0  2  0  0  3  0  0  0  0  0  0
   12.8910  -41.1070  -24.7440 C   0  0  0  0  0  2  0  0  0  0  0  0
   14.1600  -40.5120  -24.6570 N   0  0  1  0  0  0  0  0  0  0  0  0
   14.8040  -40.3880  -23.4460 C   0  0  0  0  0  2  0  0  0  0  0  0
   16.2360  -40.8600  -23.5340 C   0  0  0  0  0  2  0  0  0  0  0  0
   16.9440  -40.0600  -24.5690 C   0  0  1  0  0  3  0  0  0  0  0  0
   18.2730  -40.6740  -24.9550 C   0  0  2  0  0  3  0  0  0  0  0  0
   19.4480  -39.9810  -24.3470 C   0  0  0  0  0  2  0  0  0  0  0  0
   20.7000  -40.5780  -24.9790 C   0  0  0  0  0  2  0  0  0  0  0  0
   20.7140  -40.4250  -26.4740 C   0  0  0  0  0  2  0  0  0  0  0  0
   19.4340  -41.0350  -27.0670 C   0  0  0  0  0  2  0  0  0  0  0  0
   18.3110  -40.3100  -26.4470 C   0  0  1  0  0  3  0  0  0  0  0  0
   16.9990  -40.6800  -26.8490 N   0  0  0  0  0  0  0  0  0  0  0  0
   16.2230  -39.9070  -25.8580 C   0  0  1  0  0  3  0  0  0  0  0  0
   14.8000  -40.2760  -25.8720 C   0  0  2  0  0  3  0  0  0  0  0  0
   14.0100  -39.1930  -26.6250 C   0  0  0  0  0  2  0  0  0  0  0  0
   12.6990  -38.9080  -25.9260 C   0  0  0  0  0  2  0  0  0  0  0  0
   16.7900  -41.6920  -26.6190 H   0  0  0  0  0  0  0  0  0  0  0  0
   10.6560  -40.0350  -25.0500 C   0  0  0  0  0  2  0  0  0  0  0  0
    9.8500  -38.9990  -25.7730 C   0  0  0  0  0  1  0  0  0  0  0  0
  1 19  1  1  0  0  0
  1  2  1  0  0  0  0
  3  2  1  6  0  0  0
  3  4  1  0  0  0  0
  5  4  1  0  0  0  0
  6  5  1  1  0  0  0
  7  6  1  0  0  0  0
  7  8  1  1  0  0  0
  9  8  1  0  0  0  0
 10  9  1  0  0  0  0
 11 10  1  0  0  0  0
 12 11  1  6  0  0  0
 12  7  1  0  0  0  0
 13 18  1  0  0  0  0
 13 12  1  0  0  0  0
 14 13  1  6  0  0  0
 14  6  1  0  0  0  0
 15 16  1  1  0  0  0
 15 14  1  0  0  0  0
 15  3  1  0  0  0  0
 16 17  1  0  0  0  0
 17  1  1  0  0  0  0
 20 19  1  0  0  0  0
M  END
>  <Pose>
2

>  <Score>
-5.634

$$$$
./vina_docking/7JXQ_17_ligand_008_vina_out.pdbqt
 OpenBabel05012317533D

 20 23  0  0  1  0  0  0  0  0999 V2000
   20.3200  -43.8190  -29.2360 C   0  0  2  0  0  3  0  0  0  0  0  0
   20.3040  -42.3000  -29.0830 C   0  0  0  0  0  2  0  0  0  0  0  0
   20.2260  -41.9960  -27.7150 N   0  0  1  0  0  0  0  0  0  0  0  0
   21.0190  -41.0180  -27.1590 C   0  0  0  0  0  2  0  0  0  0  0  0
   20.2100  -40.0770  -26.2960 C   0  0  0  0  0  2  0  0  0  0  0  0
   19.5450  -40.8630  -25.2220 C   0  0  1  0  0  3  0  0  0  0  0  0
   18.4640  -40.0670  -24.5190 C   0  0  2  0  0  3  0  0  0  0  0  0
   18.8800  -39.5520  -23.1810 C   0  0  0  0  0  2  0  0  0  0  0  0
   17.6420  -38.9550  -22.5230 C   0  0  0  0  0  2  0  0  0  0  0  0
   16.5320  -39.9580  -22.3790 C   0  0  0  0  0  2  0  0  0  0  0  0
   16.2070  -40.5680  -23.7520 C   0  0  0  0  0  2  0  0  0  0  0  0
   17.4550  -41.1880  -24.2290 C   0  0  1  0  0  3  0  0  0  0  0  0
   17.4120  -41.8460  -25.4890 N   0  0  0  0  0  0  0  0  0  0  0  0
   18.8560  -42.0990  -25.6710 C   0  0  1  0  0  3  0  0  0  0  0  0
   19.1590  -42.5740  -27.0290 C   0  0  2  0  0  3  0  0  0  0  0  0
   19.3850  -44.0940  -26.9880 C   0  0  0  0  0  2  0  0  0  0  0  0
   20.5410  -44.4840  -27.8820 C   0  0  0  0  0  2  0  0  0  0  0  0
   17.1590  -41.1780  -26.2700 H   0  0  0  0  0  0  0  0  0  0  0  0
   21.3850  -44.2460  -30.2150 C   0  0  0  0  0  2  0  0  0  0  0  0
   22.2580  -45.3440  -29.6880 C   0  0  0  0  0  1  0  0  0  0  0  0
  1 19  1  6  0  0  0
  1  2  1  0  0  0  0
  1 17  1  0  0  0  0
  3  2  1  6  0  0  0
  3  4  1  0  0  0  0
  3 15  1  0  0  0  0
  4  5  1  0  0  0  0
  6  5  1  6  0  0  0
  6  7  1  0  0  0  0
  7 12  1  0  0  0  0
  7  8  1  1  0  0  0
  8  9  1  0  0  0  0
  9 10  1  0  0  0  0
 11 10  1  0  0  0  0
 12 11  1  6  0  0  0
 13 12  1  0  0  0  0
 14 13  1  6  0  0  0
 14  6  1  0  0  0  0
 15 16  1  1  0  0  0
 15 14  1  0  0  0  0
 17 16  1  0  0  0  0
 18 13  1  0  0  0  0
 19 20  1  0  0  0  0
M  END
>  <Pose>
3

>  <Score>
-5.589

$$$$
./vina_docking/7JXQ_17_ligand_008_vina_out.pdbqt
 OpenBabel05012317533D

 20 23  0  0  1  0  0  0  0  0999 V2000
   17.3730  -41.0840  -23.7240 C   0  0  2  0  0  3  0  0  0  0  0  0
   18.7350  -40.6370  -24.2520 C   0  0  0  0  0  2  0  0  0  0  0  0
   18.8640  -41.0890  -25.5740 N   0  0  1  0  0  0  0  0  0  0  0  0
   19.3550  -40.2650  -26.5610 C   0  0  0  0  0  2  0  0  0  0  0  0
   20.4220  -40.9570  -27.3770 C   0  0  0  0  0  2  0  0  0  0  0  0
   19.8420  -42.1860  -27.9830 C   0  0  1  0  0  3  0  0  0  0  0  0
   20.9100  -43.1070  -28.5370 C   0  0  2  0  0  3  0  0  0  0  0  0
   21.0330  -43.0470  -30.0240 C   0  0  0  0  0  2  0  0  0  0  0  0
   21.9910  -44.1570  -30.4410 C   0  0  0  0  0  2  0  0  0  0  0  0
   21.5150  -45.5150  -30.0070 C   0  0  0  0  0  2  0  0  0  0  0  0
   21.2740  -45.5150  -28.4890 C   0  0  0  0  0  2  0  0  0  0  0  0
   20.2680  -44.4700  -28.2350 C   0  0  1  0  0  3  0  0  0  0  0  0
   19.8540  -44.2810  -26.8890 N   0  0  0  0  0  0  0  0  0  0  0  0
   19.0620  -43.0460  -27.0570 C   0  0  1  0  0  3  0  0  0  0  0  0
   18.6850  -42.4580  -25.7630 C   0  0  2  0  0  3  0  0  0  0  0  0
   17.2130  -42.7920  -25.4720 C   0  0  0  0  0  2  0  0  0  0  0  0
   16.5070  -41.6000  -24.8660 C   0  0  0  0  0  2  0  0  0  0  0  0
   20.6620  -43.9950  -26.2670 H   0  0  0  0  0  0  0  0  0  0  0  0
   16.6820  -39.9530  -23.0040 C   0  0  0  0  0  2  0  0  0  0  0  0
   17.6090  -39.1640  -22.1300 C   0  0  0  0  0  1  0  0  0  0  0  0
  1 19  1  6  0  0  0
  2  1  1  0  0  0  0
  3  4  1  1  0  0  0
  3  2  1  0  0  0  0
  5  4  1  0  0  0  0
  6  5  1  1  0  0  0
  6 14  1  0  0  0  0
  7  8  1  6  0  0  0
  7 12  1  0  0  0  0
  7  6  1  0  0  0  0
  9  8  1  0  0  0  0
  9 10  1  0  0  0  0
 10 11  1  0  0  0  0
 12 11  1  1  0  0  0
 12 13  1  0  0  0  0
 13 18  1  0  0  0  0
 14 13  1  1  0  0  0
 14 15  1  0  0  0  0
 15  3  1  0  0  0  0
 15 16  1  6  0  0  0
 16 17  1  0  0  0  0
 17  1  1  0  0  0  0
 19 20  1  0  0  0  0
M  END
>  <Pose>
4

>  <Score>
-5.482

$$$$
./vina_docking/7JXQ_17_ligand_008_vina_out.pdbqt
 OpenBabel05012317533D

 20 23  0  0  1  0  0  0  0  0999 V2000
   18.5790  -39.7220  -25.1350 C   0  0  2  0  0  3  0  0  0  0  0  0
   17.6010  -39.5580  -23.9740 C   0  0  0  0  0  2  0  0  0  0  0  0
   16.3850  -40.1580  -24.3340 N   0  0  1  0  0  0  0  0  0  0  0  0
   15.7040  -40.9650  -23.4510 C   0  0  0  0  0  2  0  0  0  0  0  0
   14.2410  -40.5930  -23.3810 C   0  0  0  0  0  2  0  0  0  0  0  0
   13.6480  -40.7130  -24.7400 C   0  0  1  0  0  3  0  0  0  0  0  0
   12.2890  -40.0500  -24.8300 C   0  0  2  0  0  3  0  0  0  0  0  0
   11.1520  -41.0190  -24.8050 C   0  0  0  0  0  2  0  0  0  0  0  0
    9.8830  -40.2300  -25.1020 C   0  0  0  0  0  2  0  0  0  0  0  0
    9.9440  -39.5250  -26.4270 C   0  0  0  0  0  2  0  0  0  0  0  0
   11.1920  -38.6290  -26.4770 C   0  0  0  0  0  2  0  0  0  0  0  0
   12.3450  -39.5230  -26.2720 C   0  0  1  0  0  3  0  0  0  0  0  0
   13.6370  -38.9310  -26.2930 N   0  0  0  0  0  0  0  0  0  0  0  0
   14.4330  -40.0870  -25.8350 C   0  0  1  0  0  3  0  0  0  0  0  0
   15.8200  -39.7070  -25.5250 C   0  0  2  0  0  3  0  0  0  0  0  0
   16.7290  -40.1490  -26.6830 C   0  0  0  0  0  2  0  0  0  0  0  0
   18.0280  -40.7130  -26.1530 C   0  0  0  0  0  2  0  0  0  0  0  0
   13.7500  -38.2100  -25.5260 H   0  0  0  0  0  0  0  0  0  0  0  0
   19.9300  -40.1710  -24.6370 C   0  0  0  0  0  2  0  0  0  0  0  0
   20.5680  -41.1980  -25.5220 C   0  0  0  0  0  1  0  0  0  0  0  0
  1 19  1  1  0  0  0
  1  2  1  0  0  0  0
  3  2  1  1  0  0  0
  3  4  1  0  0  0  0
  4  5  1  0  0  0  0
  6  5  1  1  0  0  0
  7  8  1  6  0  0  0
  7  6  1  0  0  0  0
  9  8  1  0  0  0  0
 10  9  1  0  0  0  0
 11 10  1  0  0  0  0
 12 11  1  1  0  0  0
 12  7  1  0  0  0  0
 13 12  1  0  0  0  0
 13 18  1  0  0  0  0
 14 13  1  1  0  0  0
 14 15  1  0  0  0  0
 14  6  1  0  0  0  0
 15 16  1  6  0  0  0
 15  3  1  0  0  0  0
 16 17  1  0  0  0  0
 17  1  1  0  0  0  0
 20 19  1  0  0  0  0
M  END
>  <Pose>
5

>  <Score>
-5.342

$$$$
