aux_pdbqt.pdbqt
 OpenBabel04242319133D

 40 44  0  0  0  0  0  0  0  0999 V2000
  -40.3390   15.9440  -37.4710 C   0  0  0  0  0  0  0  0  0  0  0  0
  -39.9230   16.8610  -38.4530 C   0  0  0  0  0  0  0  0  0  0  0  0
  -40.8510   17.3190  -39.3460 C   0  0  0  0  0  3  0  0  0  0  0  0
  -42.1710   16.9100  -39.3090 C   0  0  0  0  0  3  0  0  0  0  0  0
  -42.6120   16.0190  -38.3650 C   0  0  0  0  0  0  0  0  0  0  0  0
  -41.6530   15.5520  -37.4520 C   0  0  0  0  0  3  0  0  0  0  0  0
  -38.4890   17.3270  -38.5210 C   0  0  0  0  0  1  0  0  0  0  0  0
  -39.3350   15.5140  -36.5900 N   0  0  0  0  0  0  0  0  0  0  0  0
  -38.3430   15.8930  -36.7190 H   0  0  0  0  0  0  0  0  0  0  0  0
  -39.5510   14.5900  -35.5150 C   0  0  0  0  0  0  0  0  0  0  0  0
  -38.4920   13.4220  -33.7150 C   0  0  0  0  0  0  0  0  0  0  0  0
  -39.7080   12.8520  -33.4110 C   0  0  0  0  0  3  0  0  0  0  0  0
  -38.4610   14.2630  -34.7470 N   0  0  0  0  0  0  0  0  0  0  0  0
  -40.8360   13.1690  -34.1800 C   0  0  0  0  0  3  0  0  0  0  0  0
  -40.6950   14.0200  -35.1880 N   0  0  0  0  0  0  0  0  0  0  0  0
  -37.3070   13.1080  -32.9300 C   0  0  0  0  0  0  0  0  0  0  0  0
  -34.9430   13.4680  -32.5860 C   0  0  0  0  0  3  0  0  0  0  0  0
  -36.1110   13.7290  -33.2980 C   0  0  0  0  0  3  0  0  0  0  0  0
  -34.9670   12.6000  -31.5200 C   0  0  0  0  0  3  0  0  0  0  0  0
  -36.1260   12.0130  -31.1800 N   0  0  0  0  0  0  0  0  0  0  0  0
  -37.2810   12.2600  -31.8710 C   0  0  0  0  0  3  0  0  0  0  0  0
  -43.9380   15.5340  -38.2360 N   0  0  0  0  0  0  0  0  0  0  0  0
  -44.9230   16.1750  -37.4480 C   0  0  0  0  0  0  0  0  0  0  0  0
  -44.2470   14.6490  -38.7430 H   0  0  0  0  0  0  0  0  0  0  0  0
  -44.5880   17.2200  -36.8410 O   0  0  0  0  0  0  0  0  0  0  0  0
  -46.2730   15.6810  -37.3180 C   0  0  0  0  0  0  0  0  0  0  0  0
  -46.7660   14.5370  -37.8910 C   0  0  0  0  0  3  0  0  0  0  0  0
  -47.1800   16.4180  -36.5550 C   0  0  0  0  0  3  0  0  0  0  0  0
  -48.0750   14.1480  -37.7180 C   0  0  0  0  0  3  0  0  0  0  0  0
  -48.4950   16.0410  -36.3720 C   0  0  0  0  0  3  0  0  0  0  0  0
  -48.9750   14.8890  -36.9540 C   0  0  0  0  0  0  0  0  0  0  0  0
  -50.3860   14.4150  -36.8100 C   0  0  0  0  0  2  0  0  0  0  0  0
  -50.4810   13.5670  -35.6760 N   0  0  0  0  0  0  0  0  0  0  0  0
  -50.2090   14.1620  -34.4120 C   0  0  0  0  0  2  0  0  0  0  0  0
  -51.4900   12.5670  -35.7010 C   0  0  0  0  0  2  0  0  0  0  0  0
  -51.0020   13.4020  -33.3410 C   0  0  0  0  0  2  0  0  0  0  0  0
  -52.7250   12.9020  -34.9270 C   0  0  0  0  0  2  0  0  0  0  0  0
  -52.4240   13.4820  -33.6310 N   0  0  0  0  0  4  0  0  0  0  0  0
  -53.1800   12.9080  -32.5530 C   0  0  0  0  0  1  0  0  0  0  0  0
  -52.6620   14.5010  -33.6900 H   0  0  0  0  0  0  0  0  0  0  0  0
  1  6  1  0  0  0  0
  1  8  1  0  0  0  0
  2  1  2  0  0  0  0
  3  4  2  0  0  0  0
  3  2  1  0  0  0  0
  4  5  1  0  0  0  0
  5 22  1  0  0  0  0
  5  6  2  0  0  0  0
  7  2  1  0  0  0  0
  8 10  1  0  0  0  0
  9  8  1  0  0  0  0
 10 15  1  0  0  0  0
 10 13  2  0  0  0  0
 11 12  2  0  0  0  0
 11 16  1  0  0  0  0
 13 11  1  0  0  0  0
 14 12  1  0  0  0  0
 15 14  2  0  0  0  0
 16 21  1  0  0  0  0
 17 19  2  0  0  0  0
 18 16  2  0  0  0  0
 18 17  1  0  0  0  0
 19 20  1  0  0  0  0
 21 20  2  0  0  0  0
 22 23  1  0  0  0  0
 23 26  1  0  0  0  0
 23 25  2  0  0  0  0
 24 22  1  0  0  0  0
 26 28  1  0  0  0  0
 27 29  1  0  0  0  0
 27 26  2  0  0  0  0
 28 30  2  0  0  0  0
 29 31  2  0  0  0  0
 31 32  1  0  0  0  0
 31 30  1  0  0  0  0
 32 33  1  0  0  0  0
 33 34  1  0  0  0  0
 34 36  1  0  0  0  0
 35 33  1  0  0  0  0
 35 37  1  0  0  0  0
 37 38  1  0  0  0  0
 38 36  1  0  0  0  0
 38 39  1  0  0  0  0
 40 38  1  0  0  0  0
M  END
>  <Score>
SMILES

$$$$
